1--14
 OpenBabel06252120523D

 36 39  0  0  0  0  0  0  0  0999 V2000
    1.3963   37.2060   22.6079 C   0  0  0  0  0  0  0  0  0  0  0  0
    1.1460   36.8933   21.2539 C   0  0  0  0  0  0  0  0  0  0  0  0
    2.2325   36.7551   20.3653 C   0  0  0  0  0  0  0  0  0  0  0  0
    3.5327   36.8768   20.8443 C   0  0  0  0  0  0  0  0  0  0  0  0
    3.7690   37.1697   22.1896 C   0  0  0  0  0  0  0  0  0  0  0  0
    2.7088   37.3185   23.0719 C   0  0  0  0  0  0  0  0  0  0  0  0
    0.5521   38.1227   24.6092 C   0  0  0  0  0  0  0  0  0  0  0  0
    0.3213   37.3148   23.4557 O   0  0  0  0  0  0  0  0  0  0  0  0
    1.9510   36.5351   19.0398 O   0  0  0  0  0  0  0  0  0  0  0  0
    2.1462   37.6263   18.1452 C   0  0  0  0  0  0  0  0  0  0  0  0
    5.0194   37.3353   22.7292 O   0  0  0  0  0  0  0  0  0  0  0  0
    5.8267   36.1660   22.5767 C   0  0  0  0  0  0  0  0  0  0  0  0
    7.0511   36.1489   23.4583 C   0  0  0  0  0  0  0  0  0  0  0  0
    8.2520   36.7690   23.0052 C   0  0  0  0  0  0  0  0  0  0  0  0
    9.4174   36.7306   23.8207 C   0  0  0  0  0  0  0  0  0  0  0  0
    9.3036   36.0665   25.0652 C   0  0  0  0  0  0  0  0  0  0  0  0
    8.1136   35.4967   25.5177 C   0  0  0  0  0  0  0  0  0  0  0  0
    6.9901   35.5373   24.7157 C   0  0  0  0  0  0  0  0  0  0  0  0
    8.2561   37.4351   21.6408 C   0  0  0  0  0  0  0  0  0  0  0  0
   10.7192   37.3814   23.4777 C   0  0  0  0  0  0  0  0  0  0  0  0
   10.8357   38.7865   23.4542 C   0  0  0  0  0  0  0  0  0  0  0  0
   12.0289   39.4241   23.1014 C   0  0  0  0  0  0  0  0  0  0  0  0
   13.1337   38.6724   22.7232 C   0  0  0  0  0  0  0  0  0  0  0  0
   13.0600   37.2871   22.7460 C   0  0  0  0  0  0  0  0  0  0  0  0
   11.8827   36.6570   23.1591 C   0  0  0  0  0  0  0  0  0  0  0  0
   -0.2437   36.5593   20.7748 C   0  0  0  0  0  0  0  0  0  0  0  0
   -0.8336   37.5057   19.8135 N   0  0  0  0  0  0  0  0  0  0  0  0
   -0.0775   38.0041   19.3462 H   0  0  0  0  0  0  0  0  0  0  0  0
   -1.5747   36.6967   18.8338 C   0  0  0  0  0  0  0  0  0  0  0  0
   -1.5034   37.1989   17.3782 C   0  0  0  0  0  0  0  0  0  0  0  0
   -1.7281   36.0864   16.4325 N   0  0  0  0  0  0  0  0  0  0  0  0
   -1.6813   36.4793   15.0058 C   0  0  0  0  0  0  0  0  0  0  0  0
   -0.2652   36.6740   14.4448 C   0  0  0  0  0  0  0  0  0  0  0  0
    0.5221   35.4932   14.6298 O   0  0  0  0  0  0  0  0  0  0  0  0
    0.6041   35.1647   16.0217 C   0  0  0  0  0  0  0  0  0  0  0  0
   -0.7884   34.9680   16.6459 C   0  0  0  0  0  0  0  0  0  0  0  0
  1  2  2  0  0  0  0
  1  6  1  0  0  0  0
  2  3  1  0  0  0  0
  2 26  1  0  0  0  0
  3  4  2  0  0  0  0
  3  9  1  0  0  0  0
  4  5  1  0  0  0  0
  5  6  2  0  0  0  0
  5 11  1  0  0  0  0
  7  8  1  0  0  0  0
  8  1  1  0  0  0  0
  9 10  1  0  0  0  0
 11 12  1  0  0  0  0
 12 13  1  0  0  0  0
 13 14  2  0  0  0  0
 13 18  1  0  0  0  0
 14 15  1  0  0  0  0
 14 19  1  0  0  0  0
 15 16  2  0  0  0  0
 15 20  1  0  0  0  0
 16 17  1  0  0  0  0
 17 18  2  0  0  0  0
 20 21  2  0  0  0  0
 20 25  1  0  0  0  0
 21 22  1  0  0  0  0
 22 23  2  0  0  0  0
 23 24  1  0  0  0  0
 24 25  2  0  0  0  0
 26 27  1  0  0  0  0
 27 29  1  0  0  0  0
 27 28  1  0  0  0  0
 29 30  1  0  0  0  0
 30 31  1  0  0  0  0
 31 32  1  0  0  0  0
 31 36  1  0  0  0  0
 32 33  1  0  0  0  0
 33 34  1  0  0  0  0
 34 35  1  0  0  0  0
 35 36  1  0  0  0  0
M  END
>  <ID>
1--14

>  <pIC50>
6.301029995

$$$$
