1--12
 OpenBabel06252120523D

 37 40  0  0  0  0  0  0  0  0999 V2000
    1.2295   37.5218   24.1608 C   0  0  0  0  0  0  0  0  0  0  0  0
    0.9180   37.4797   22.7803 C   0  0  0  0  0  0  0  0  0  0  0  0
    1.9043   37.0413   21.8660 C   0  0  0  0  0  0  0  0  0  0  0  0
    3.1511   36.6273   22.3387 C   0  0  0  0  0  0  0  0  0  0  0  0
    3.4393   36.6568   23.6988 C   0  0  0  0  0  0  0  0  0  0  0  0
    2.4825   37.0953   24.6064 C   0  0  0  0  0  0  0  0  0  0  0  0
    0.6212   38.2009   26.3687 C   0  0  0  0  0  0  0  0  0  0  0  0
    0.2503   37.9718   25.0129 O   0  0  0  0  0  0  0  0  0  0  0  0
    1.5654   37.0490   20.5359 O   0  0  0  0  0  0  0  0  0  0  0  0
    2.6272   37.0406   19.5862 C   0  0  0  0  0  0  0  0  0  0  0  0
    4.6885   36.2174   24.0335 O   0  0  0  0  0  0  0  0  0  0  0  0
    5.6865   36.3459   23.0247 C   0  0  0  0  0  0  0  0  0  0  0  0
    7.0329   36.2605   23.7040 C   0  0  0  0  0  0  0  0  0  0  0  0
    8.2099   36.8224   23.1337 C   0  0  0  0  0  0  0  0  0  0  0  0
    9.4337   36.7912   23.8663 C   0  0  0  0  0  0  0  0  0  0  0  0
    9.4388   36.0769   25.0873 C   0  0  0  0  0  0  0  0  0  0  0  0
    8.3032   35.4489   25.5929 C   0  0  0  0  0  0  0  0  0  0  0  0
    7.1026   35.5536   24.9131 C   0  0  0  0  0  0  0  0  0  0  0  0
    8.1385   37.4309   21.7487 C   0  0  0  0  0  0  0  0  0  0  0  0
   10.6981   37.4574   23.4332 C   0  0  0  0  0  0  0  0  0  0  0  0
   11.7970   36.7318   22.9372 C   0  0  0  0  0  0  0  0  0  0  0  0
   12.9764   37.3623   22.5249 C   0  0  0  0  0  0  0  0  0  0  0  0
   13.0664   38.7484   22.5388 C   0  0  0  0  0  0  0  0  0  0  0  0
   11.9854   39.5002   22.9804 C   0  0  0  0  0  0  0  0  0  0  0  0
   10.8263   38.8629   23.4374 C   0  0  0  0  0  0  0  0  0  0  0  0
   -0.4651   37.8805   22.2921 C   0  0  0  0  0  0  0  0  0  0  0  0
   -0.3932   39.0121   21.3654 N   0  0  0  0  0  0  0  0  0  0  0  0
    0.5254   38.9688   20.9300 H   0  0  0  0  0  0  0  0  0  0  0  0
   -1.4434   38.9643   20.3492 C   0  0  0  0  0  0  0  0  0  0  0  0
   -0.8262   38.9805   18.9430 C   0  0  0  0  0  0  0  0  0  0  0  0
   -1.0603   37.6653   18.2081 C   0  0  0  0  0  0  0  0  0  0  0  0
   -0.2168   37.4469   17.0454 N   0  0  0  0  0  0  0  0  0  0  0  0
    0.2589   36.1546   16.8178 C   0  0  0  0  0  0  0  0  0  0  0  0
    1.5867   36.2459   16.1236 C   0  0  0  0  0  0  0  0  0  0  0  0
    1.7442   37.7153   15.7723 C   0  0  0  0  0  0  0  0  0  0  0  0
    0.7487   38.4445   16.6506 C   0  0  0  0  0  0  0  0  0  0  0  0
   -0.2553   35.1159   17.1923 O   0  0  0  0  0  0  0  0  0  0  0  0
  1  2  2  0  0  0  0
  1  6  1  0  0  0  0
  2  3  1  0  0  0  0
  2 26  1  0  0  0  0
  3  4  2  0  0  0  0
  3  9  1  0  0  0  0
  4  5  1  0  0  0  0
  5  6  2  0  0  0  0
  5 11  1  0  0  0  0
  7  8  1  0  0  0  0
  8  1  1  0  0  0  0
  9 10  1  0  0  0  0
 11 12  1  0  0  0  0
 12 13  1  0  0  0  0
 13 14  2  0  0  0  0
 13 18  1  0  0  0  0
 14 15  1  0  0  0  0
 14 19  1  0  0  0  0
 15 16  2  0  0  0  0
 15 20  1  0  0  0  0
 16 17  1  0  0  0  0
 17 18  2  0  0  0  0
 20 21  2  0  0  0  0
 20 25  1  0  0  0  0
 21 22  1  0  0  0  0
 22 23  2  0  0  0  0
 23 24  1  0  0  0  0
 24 25  2  0  0  0  0
 26 27  1  0  0  0  0
 27 29  1  0  0  0  0
 27 28  1  0  0  0  0
 29 30  1  0  0  0  0
 30 31  1  0  0  0  0
 31 32  1  0  0  0  0
 32 33  1  0  0  0  0
 32 36  1  0  0  0  0
 33 34  1  0  0  0  0
 33 37  2  0  0  0  0
 34 35  1  0  0  0  0
 35 36  1  0  0  0  0
M  END
>  <ID>
1--12

>  <pIC50>
6.301029995

$$$$
