1--13
 OpenBabel06252120523D

 38 41  0  0  0  0  0  0  0  0999 V2000
    1.1599   37.2241   22.5680 C   0  0  0  0  0  0  0  0  0  0  0  0
    1.0066   36.8886   21.2007 C   0  0  0  0  0  0  0  0  0  0  0  0
    2.1707   36.7211   20.4177 C   0  0  0  0  0  0  0  0  0  0  0  0
    3.4243   36.8732   21.0024 C   0  0  0  0  0  0  0  0  0  0  0  0
    3.5674   37.1595   22.3613 C   0  0  0  0  0  0  0  0  0  0  0  0
    2.4335   37.3357   23.1398 C   0  0  0  0  0  0  0  0  0  0  0  0
   -0.0764   38.6144   24.0431 C   0  0  0  0  0  0  0  0  0  0  0  0
    0.0305   37.3876   23.3298 O   0  0  0  0  0  0  0  0  0  0  0  0
    2.2574   36.5497   19.0571 O   0  0  0  0  0  0  0  0  0  0  0  0
    2.2426   37.6868   18.2045 C   0  0  0  0  0  0  0  0  0  0  0  0
    4.7725   37.2919   23.0153 O   0  0  0  0  0  0  0  0  0  0  0  0
    5.6676   36.2216   22.7232 C   0  0  0  0  0  0  0  0  0  0  0  0
    6.9407   36.1755   23.5284 C   0  0  0  0  0  0  0  0  0  0  0  0
    8.1091   36.8246   23.0071 C   0  0  0  0  0  0  0  0  0  0  0  0
    9.3143   36.8332   23.7680 C   0  0  0  0  0  0  0  0  0  0  0  0
    9.2982   36.1283   24.9914 C   0  0  0  0  0  0  0  0  0  0  0  0
    8.1672   35.4612   25.4664 C   0  0  0  0  0  0  0  0  0  0  0  0
    6.9899   35.4941   24.7433 C   0  0  0  0  0  0  0  0  0  0  0  0
    8.0471   37.4430   21.6206 C   0  0  0  0  0  0  0  0  0  0  0  0
   10.5785   37.5082   23.3463 C   0  0  0  0  0  0  0  0  0  0  0  0
   11.6780   36.8146   22.8047 C   0  0  0  0  0  0  0  0  0  0  0  0
   12.8618   37.4663   22.4340 C   0  0  0  0  0  0  0  0  0  0  0  0
   12.9515   38.8477   22.5266 C   0  0  0  0  0  0  0  0  0  0  0  0
   11.8669   39.5735   23.0024 C   0  0  0  0  0  0  0  0  0  0  0  0
   10.7096   38.9083   23.4248 C   0  0  0  0  0  0  0  0  0  0  0  0
   -0.3146   36.7308   20.5050 C   0  0  0  0  0  0  0  0  0  0  0  0
   -0.4264   35.7780   19.4174 N   0  0  0  0  0  0  0  0  0  0  0  0
   -0.8155   34.9085   19.7677 H   0  0  0  0  0  0  0  0  0  0  0  0
   -1.2626   36.3667   18.3745 C   0  0  0  0  0  0  0  0  0  0  0  0
   -1.3125   35.4477   17.1563 C   0  0  0  0  0  0  0  0  0  0  0  0
   -0.3127   35.8274   16.1449 N   0  0  0  0  0  0  0  0  0  0  0  0
    0.8838   34.9484   16.1621 C   0  0  0  0  0  0  0  0  0  0  0  0
    0.6083   33.5261   15.6680 C   0  0  0  0  0  0  0  0  0  0  0  0
   -0.2048   33.4130   14.5672 N   0  0  0  0  0  0  0  0  0  0  0  0
   -1.2095   34.4112   14.2535 C   0  0  0  0  0  0  0  0  0  0  0  0
   -0.8996   35.8137   14.7890 C   0  0  0  0  0  0  0  0  0  0  0  0
    1.1550   32.5353   16.1443 O   0  0  0  0  0  0  0  0  0  0  0  0
   -0.3703   32.4525   14.2928 H   0  0  0  0  0  0  0  0  0  0  0  0
  1  2  2  0  0  0  0
  1  6  1  0  0  0  0
  2  3  1  0  0  0  0
  2 26  1  0  0  0  0
  3  4  2  0  0  0  0
  3  9  1  0  0  0  0
  4  5  1  0  0  0  0
  5  6  2  0  0  0  0
  5 11  1  0  0  0  0
  7  8  1  0  0  0  0
  8  1  1  0  0  0  0
  9 10  1  0  0  0  0
 11 12  1  0  0  0  0
 12 13  1  0  0  0  0
 13 14  2  0  0  0  0
 13 18  1  0  0  0  0
 14 15  1  0  0  0  0
 14 19  1  0  0  0  0
 15 16  2  0  0  0  0
 15 20  1  0  0  0  0
 16 17  1  0  0  0  0
 17 18  2  0  0  0  0
 20 21  2  0  0  0  0
 20 25  1  0  0  0  0
 21 22  1  0  0  0  0
 22 23  2  0  0  0  0
 23 24  1  0  0  0  0
 24 25  2  0  0  0  0
 26 27  1  0  0  0  0
 27 29  1  0  0  0  0
 27 28  1  0  0  0  0
 29 30  1  0  0  0  0
 30 31  1  0  0  0  0
 31 32  1  0  0  0  0
 31 36  1  0  0  0  0
 32 33  1  0  0  0  0
 33 34  1  0  0  0  0
 33 37  2  0  0  0  0
 34 35  1  0  0  0  0
 34 38  1  0  0  0  0
 35 36  1  0  0  0  0
M  END
>  <ID>
1--13

>  <pIC50>
6.301029995

$$$$
