1--3
 OpenBabel06252120523D

 29 31  0  0  0  0  0  0  0  0999 V2000
    4.4911   36.5862   23.3661 O   0  0  0  0  0  0  0  0  0  0  0  0
    1.8591   37.0196   24.4275 C   0  0  0  0  0  0  0  0  0  0  0  0
    2.1626   36.9622   22.9589 C   0  0  0  0  0  0  0  0  0  0  0  0
    1.0954   37.0134   22.0390 C   0  0  0  0  0  0  0  0  0  0  0  0
    1.3172   36.9641   20.6547 C   0  0  0  0  0  0  0  0  0  0  0  0
    2.6259   36.9555   20.1818 C   0  0  0  0  0  0  0  0  0  0  0  0
    3.6856   36.9163   21.0800 C   0  0  0  0  0  0  0  0  0  0  0  0
    3.4675   36.8353   22.4630 C   0  0  0  0  0  0  0  0  0  0  0  0
    0.1648   36.9130   19.6861 C   0  0  0  0  0  0  0  0  0  0  0  0
    0.4675   36.0098   18.5797 N   0  0  0  0  0  0  0  0  0  0  0  0
   -0.2217   35.2581   18.6064 H   0  0  0  0  0  0  0  0  0  0  0  0
    0.3554   36.7163   17.2988 C   0  0  0  0  0  0  0  0  0  0  0  0
    1.4729   36.2716   16.3505 C   0  0  0  0  0  0  0  0  0  0  0  0
    1.7972   34.9017   16.5749 O   0  0  0  0  0  0  0  0  0  0  0  0
    2.2406   34.8766   17.4414 H   0  0  0  0  0  0  0  0  0  0  0  0
    5.7315   36.3004   22.6855 C   0  0  0  0  0  0  0  0  0  0  0  0
    6.9974   36.2032   23.5165 C   0  0  0  0  0  0  0  0  0  0  0  0
    8.2129   36.7872   23.0224 C   0  0  0  0  0  0  0  0  0  0  0  0
    9.3881   36.7945   23.8291 C   0  0  0  0  0  0  0  0  0  0  0  0
    9.3181   36.1088   25.0610 C   0  0  0  0  0  0  0  0  0  0  0  0
    8.1484   35.4888   25.5101 C   0  0  0  0  0  0  0  0  0  0  0  0
    6.9859   35.5575   24.7544 C   0  0  0  0  0  0  0  0  0  0  0  0
    8.2222   37.4070   21.6372 C   0  0  0  0  0  0  0  0  0  0  0  0
   10.6667   37.4837   23.4584 C   0  0  0  0  0  0  0  0  0  0  0  0
   11.8117   36.7774   23.0447 C   0  0  0  0  0  0  0  0  0  0  0  0
   13.0099   37.4242   22.7147 C   0  0  0  0  0  0  0  0  0  0  0  0
   13.0765   38.8105   22.7245 C   0  0  0  0  0  0  0  0  0  0  0  0
   11.9505   39.5445   23.0794 C   0  0  0  0  0  0  0  0  0  0  0  0
   10.7700   38.8879   23.4583 C   0  0  0  0  0  0  0  0  0  0  0  0
  1 16  1  0  0  0  0
  2  3  1  0  0  0  0
  3  4  2  0  0  0  0
  3  8  1  0  0  0  0
  4  5  1  0  0  0  0
  5  6  2  0  0  0  0
  5  9  1  0  0  0  0
  6  7  1  0  0  0  0
  7  8  2  0  0  0  0
  8  1  1  0  0  0  0
  9 10  1  0  0  0  0
 10 12  1  0  0  0  0
 10 11  1  0  0  0  0
 12 13  1  0  0  0  0
 13 14  1  0  0  0  0
 14 15  1  0  0  0  0
 16 17  1  0  0  0  0
 17 18  2  0  0  0  0
 17 22  1  0  0  0  0
 18 19  1  0  0  0  0
 18 23  1  0  0  0  0
 19 20  2  0  0  0  0
 19 24  1  0  0  0  0
 20 21  1  0  0  0  0
 21 22  2  0  0  0  0
 24 25  2  0  0  0  0
 24 29  1  0  0  0  0
 25 26  1  0  0  0  0
 26 27  2  0  0  0  0
 27 28  1  0  0  0  0
 28 29  2  0  0  0  0
M  END
>  <ID>
1--3

>  <pIC50>
7.301029995

$$$$
