1--7
 OpenBabel06252120523D

 36 38  0  0  0  0  0  0  0  0999 V2000
    2.2275   36.8038   20.2961 C   0  0  0  0  0  0  0  0  0  0  0  0
    1.0874   36.9607   21.1134 C   0  0  0  0  0  0  0  0  0  0  0  0
    1.2592   37.1380   22.5043 C   0  0  0  0  0  0  0  0  0  0  0  0
    2.5459   37.1330   23.0504 C   0  0  0  0  0  0  0  0  0  0  0  0
    3.6614   36.9288   22.2405 C   0  0  0  0  0  0  0  0  0  0  0  0
    3.4998   36.7777   20.8670 C   0  0  0  0  0  0  0  0  0  0  0  0
    2.2779   37.7135   18.0978 C   0  0  0  0  0  0  0  0  0  0  0  0
    2.0172   36.6018   18.9529 O   0  0  0  0  0  0  0  0  0  0  0  0
    0.1158   37.2980   23.2459 O   0  0  0  0  0  0  0  0  0  0  0  0
    0.1017   38.3208   24.2325 C   0  0  0  0  0  0  0  0  0  0  0  0
    4.8695   36.9345   22.8819 O   0  0  0  0  0  0  0  0  0  0  0  0
    5.9155   36.1873   22.2545 C   0  0  0  0  0  0  0  0  0  0  0  0
    7.1231   36.1957   23.1669 C   0  0  0  0  0  0  0  0  0  0  0  0
    8.3779   36.7369   22.7589 C   0  0  0  0  0  0  0  0  0  0  0  0
    9.4423   36.8514   23.7001 C   0  0  0  0  0  0  0  0  0  0  0  0
    9.2410   36.2711   24.9735 C   0  0  0  0  0  0  0  0  0  0  0  0
    8.0410   35.6582   25.3366 C   0  0  0  0  0  0  0  0  0  0  0  0
    6.9780   35.6496   24.4477 C   0  0  0  0  0  0  0  0  0  0  0  0
    8.5414   37.1951   21.3252 C   0  0  0  0  0  0  0  0  0  0  0  0
   10.7276   37.5626   23.4347 C   0  0  0  0  0  0  0  0  0  0  0  0
   11.9186   36.8685   23.1486 C   0  0  0  0  0  0  0  0  0  0  0  0
   13.1265   37.5327   22.9151 C   0  0  0  0  0  0  0  0  0  0  0  0
   13.1617   38.9215   22.8952 C   0  0  0  0  0  0  0  0  0  0  0  0
   11.9940   39.6406   23.1213 C   0  0  0  0  0  0  0  0  0  0  0  0
   10.7979   38.9697   23.4051 C   0  0  0  0  0  0  0  0  0  0  0  0
   -0.3008   36.9457   20.4990 C   0  0  0  0  0  0  0  0  0  0  0  0
   -0.4541   35.9919   19.3867 N   0  0  0  0  0  0  0  0  0  0  0  0
   -0.6021   35.0690   19.7998 H   0  0  0  0  0  0  0  0  0  0  0  0
   -1.5869   36.3477   18.5232 C   0  0  0  0  0  0  0  0  0  0  0  0
   -1.4919   35.6603   17.1573 C   0  0  0  0  0  0  0  0  0  0  0  0
   -0.2015   35.9167   16.4273 N   0  0  0  0  0  0  0  0  0  0  0  0
   -0.3625   37.0864   15.5192 C   0  0  0  0  0  0  0  0  0  0  0  0
    0.5437   34.5908   15.6529 S   0  0  0  0  0  0  0  0  0  0  0  0
    0.4661   34.7829   14.2207 O   0  0  0  0  0  0  0  0  0  0  0  0
    1.8206   34.3594   16.3014 O   0  0  0  0  0  0  0  0  0  0  0  0
   -0.4950   33.2113   16.1132 C   0  0  0  0  0  0  0  0  0  0  0  0
  1  2  2  0  0  0  0
  1  6  1  0  0  0  0
  2  3  1  0  0  0  0
  2 26  1  0  0  0  0
  3  4  2  0  0  0  0
  3  9  1  0  0  0  0
  4  5  1  0  0  0  0
  5  6  2  0  0  0  0
  5 11  1  0  0  0  0
  7  8  1  0  0  0  0
  8  1  1  0  0  0  0
  9 10  1  0  0  0  0
 11 12  1  0  0  0  0
 12 13  1  0  0  0  0
 13 14  2  0  0  0  0
 13 18  1  0  0  0  0
 14 15  1  0  0  0  0
 14 19  1  0  0  0  0
 15 16  2  0  0  0  0
 15 20  1  0  0  0  0
 16 17  1  0  0  0  0
 17 18  2  0  0  0  0
 20 21  2  0  0  0  0
 20 25  1  0  0  0  0
 21 22  1  0  0  0  0
 22 23  2  0  0  0  0
 23 24  1  0  0  0  0
 24 25  2  0  0  0  0
 26 27  1  0  0  0  0
 27 29  1  0  0  0  0
 27 28  1  0  0  0  0
 29 30  1  0  0  0  0
 30 31  1  0  0  0  0
 31 33  1  0  0  0  0
 31 32  1  0  0  0  0
 33 34  2  0  0  0  0
 33 35  2  0  0  0  0
 33 36  1  0  0  0  0
M  END
>  <ID>
1--7

>  <pIC50>
6.301029995

$$$$
