1--8
 OpenBabel06252120523D

 33 36  0  0  0  0  0  0  0  0999 V2000
   -3.0933   37.2920   20.8229 Br  0  0  0  0  0  0  0  0  0  0  0  0
   -1.8323   36.9227   19.4524 C   0  0  0  0  0  0  0  0  0  0  0  0
   -2.3172   36.7300   18.1493 C   0  0  0  0  0  0  0  0  0  0  0  0
   -1.4615   36.3506   17.0995 C   0  0  0  0  0  0  0  0  0  0  0  0
   -0.0852   36.3575   17.3501 C   0  0  0  0  0  0  0  0  0  0  0  0
    0.4038   36.5778   18.6471 C   0  0  0  0  0  0  0  0  0  0  0  0
   -0.4737   36.7576   19.7285 C   0  0  0  0  0  0  0  0  0  0  0  0
   -0.0633   36.7124   21.0492 O   0  0  0  0  0  0  0  0  0  0  0  0
    1.1697   37.4186   21.2725 C   0  0  0  0  0  0  0  0  0  0  0  0
    1.9852   37.0444   22.5041 C   0  0  0  0  0  0  0  0  0  0  0  0
    3.4040   36.8579   22.3839 C   0  0  0  0  0  0  0  0  0  0  0  0
    4.2018   36.5824   23.5352 C   0  0  0  0  0  0  0  0  0  0  0  0
    3.5184   36.3814   24.7520 C   0  0  0  0  0  0  0  0  0  0  0  0
    2.1294   36.4954   24.8538 C   0  0  0  0  0  0  0  0  0  0  0  0
    1.3696   36.8496   23.7430 C   0  0  0  0  0  0  0  0  0  0  0  0
    4.0413   36.9626   21.0138 C   0  0  0  0  0  0  0  0  0  0  0  0
    5.6970   36.5055   23.5280 C   0  0  0  0  0  0  0  0  0  0  0  0
    6.4811   37.2152   22.5963 C   0  0  0  0  0  0  0  0  0  0  0  0
    7.8790   37.1275   22.5782 C   0  0  0  0  0  0  0  0  0  0  0  0
    8.5427   36.3754   23.5387 C   0  0  0  0  0  0  0  0  0  0  0  0
    7.8056   35.6992   24.5070 C   0  0  0  0  0  0  0  0  0  0  0  0
    6.4026   35.7493   24.4865 C   0  0  0  0  0  0  0  0  0  0  0  0
   -2.0207   35.7808   15.7975 C   0  0  0  0  0  0  0  0  0  0  0  0
   -2.0212   34.3044   15.6423 N   0  0  0  0  0  0  0  0  0  0  0  0
   -3.2828   33.7960   14.9776 C   0  0  2  0  0  0  0  0  0  0  0  0
   -3.4459   34.1649   13.4930 C   0  0  0  0  0  0  0  0  0  0  0  0
   -2.2051   33.8257   12.6744 C   0  0  0  0  0  0  0  0  0  0  0  0
   -0.9412   34.3167   13.3629 C   0  0  0  0  0  0  0  0  0  0  0  0
   -0.8854   33.8371   14.8183 C   0  0  0  0  0  0  0  0  0  0  0  0
   -4.5389   34.1601   15.7832 C   0  0  0  0  0  0  0  0  0  0  0  0
   -5.4736   34.8239   15.3760 O   0  0  0  0  0  0  0  0  0  0  0  0
   -4.5226   33.5976   17.0203 O   0  0  0  0  0  0  0  0  0  0  0  0
   -3.6603   33.1551   17.1344 H   0  0  0  0  0  0  0  0  0  0  0  0
  1  2  1  0  0  0  0
  2  3  2  0  0  0  0
  2  7  1  0  0  0  0
  3  4  1  0  0  0  0
  4  5  2  0  0  0  0
  4 23  1  0  0  0  0
  5  6  1  0  0  0  0
  6  7  2  0  0  0  0
  7  8  1  0  0  0  0
  8  9  1  0  0  0  0
  9 10  1  0  0  0  0
 10 11  2  0  0  0  0
 10 15  1  0  0  0  0
 11 12  1  0  0  0  0
 11 16  1  0  0  0  0
 12 13  2  0  0  0  0
 12 17  1  0  0  0  0
 13 14  1  0  0  0  0
 14 15  2  0  0  0  0
 17 18  2  0  0  0  0
 17 22  1  0  0  0  0
 18 19  1  0  0  0  0
 19 20  2  0  0  0  0
 20 21  1  0  0  0  0
 21 22  2  0  0  0  0
 23 24  1  0  0  0  0
 24 25  1  0  0  0  0
 24 29  1  0  0  0  0
 25 26  1  0  0  0  0
 25 30  1  1  0  0  0
 26 27  1  0  0  0  0
 27 28  1  0  0  0  0
 28 29  1  0  0  0  0
 30 31  2  0  0  0  0
 30 32  1  0  0  0  0
 32 33  1  0  0  0  0
M  END
>  <ID>
1--8

>  <pIC50>
6.301029995

$$$$
