1--9
 OpenBabel06252120523D

 37 40  0  0  0  0  0  0  0  0999 V2000
    1.3844   37.1674   22.5658 C   0  0  0  0  0  0  0  0  0  0  0  0
    1.1818   36.9641   21.1800 C   0  0  0  0  0  0  0  0  0  0  0  0
    2.3060   36.7757   20.3512 C   0  0  0  0  0  0  0  0  0  0  0  0
    3.5882   36.8106   20.8977 C   0  0  0  0  0  0  0  0  0  0  0  0
    3.7818   37.0605   22.2558 C   0  0  0  0  0  0  0  0  0  0  0  0
    2.6818   37.1946   23.0936 C   0  0  0  0  0  0  0  0  0  0  0  0
    0.1150   38.5847   23.9824 C   0  0  0  0  0  0  0  0  0  0  0  0
    0.2610   37.3185   23.3428 O   0  0  0  0  0  0  0  0  0  0  0  0
    2.0861   36.6405   19.0036 O   0  0  0  0  0  0  0  0  0  0  0  0
    2.3359   37.7885   18.1975 C   0  0  0  0  0  0  0  0  0  0  0  0
    5.0147   37.2195   22.8437 O   0  0  0  0  0  0  0  0  0  0  0  0
    5.8858   36.0988   22.6460 C   0  0  0  0  0  0  0  0  0  0  0  0
    7.1443   36.1116   23.4887 C   0  0  0  0  0  0  0  0  0  0  0  0
    8.3237   36.7556   22.9952 C   0  0  0  0  0  0  0  0  0  0  0  0
    9.4748   36.8745   23.8289 C   0  0  0  0  0  0  0  0  0  0  0  0
    9.4097   36.2447   25.0928 C   0  0  0  0  0  0  0  0  0  0  0  0
    8.2865   35.5437   25.5338 C   0  0  0  0  0  0  0  0  0  0  0  0
    7.1531   35.4908   24.7405 C   0  0  0  0  0  0  0  0  0  0  0  0
    8.3071   37.3137   21.5868 C   0  0  0  0  0  0  0  0  0  0  0  0
   10.7328   37.5944   23.4504 C   0  0  0  0  0  0  0  0  0  0  0  0
   10.8402   38.9977   23.4394 C   0  0  0  0  0  0  0  0  0  0  0  0
   12.0084   39.6531   23.0288 C   0  0  0  0  0  0  0  0  0  0  0  0
   13.1360   38.9174   22.6871 C   0  0  0  0  0  0  0  0  0  0  0  0
   13.0909   37.5313   22.7527 C   0  0  0  0  0  0  0  0  0  0  0  0
   11.9019   36.8827   23.1111 C   0  0  0  0  0  0  0  0  0  0  0  0
   -0.2126   36.9084   20.5843 C   0  0  0  0  0  0  0  0  0  0  0  0
   -0.4257   35.8681   19.5741 N   0  0  0  0  0  0  0  0  0  0  0  0
   -0.5721   34.9717   20.0417 H   0  0  0  0  0  0  0  0  0  0  0  0
   -1.5637   36.1438   18.6890 C   0  0  0  0  0  0  0  0  0  0  0  0
   -1.2053   37.2256   17.6537 C   0  0  0  0  0  0  0  0  0  0  0  0
   -1.4550   38.4223   17.8351 O   0  0  0  0  0  0  0  0  0  0  0  0
   -0.5762   36.7891   16.4957 N   0  0  0  0  0  0  0  0  0  0  0  0
   -0.1278   35.4206   16.2242 C   0  0  0  0  0  0  0  0  0  0  0  0
   -0.5576   34.9947   14.8175 C   0  0  0  0  0  0  0  0  0  0  0  0
   -0.0833   35.9236   13.8305 O   0  0  0  0  0  0  0  0  0  0  0  0
   -0.6072   37.2405   14.0773 C   0  0  0  0  0  0  0  0  0  0  0  0
   -0.1953   37.7507   15.4620 C   0  0  0  0  0  0  0  0  0  0  0  0
  1  2  2  0  0  0  0
  1  6  1  0  0  0  0
  2  3  1  0  0  0  0
  2 26  1  0  0  0  0
  3  4  2  0  0  0  0
  3  9  1  0  0  0  0
  4  5  1  0  0  0  0
  5  6  2  0  0  0  0
  5 11  1  0  0  0  0
  7  8  1  0  0  0  0
  8  1  1  0  0  0  0
  9 10  1  0  0  0  0
 11 12  1  0  0  0  0
 12 13  1  0  0  0  0
 13 14  2  0  0  0  0
 13 18  1  0  0  0  0
 14 15  1  0  0  0  0
 14 19  1  0  0  0  0
 15 16  2  0  0  0  0
 15 20  1  0  0  0  0
 16 17  1  0  0  0  0
 17 18  2  0  0  0  0
 20 21  2  0  0  0  0
 20 25  1  0  0  0  0
 21 22  1  0  0  0  0
 22 23  2  0  0  0  0
 23 24  1  0  0  0  0
 24 25  2  0  0  0  0
 26 27  1  0  0  0  0
 27 29  1  0  0  0  0
 27 28  1  0  0  0  0
 29 30  1  0  0  0  0
 30 31  2  0  0  0  0
 30 32  1  0  0  0  0
 32 33  1  0  0  0  0
 32 37  1  0  0  0  0
 33 34  1  0  0  0  0
 34 35  1  0  0  0  0
 35 36  1  0  0  0  0
 36 37  1  0  0  0  0
M  END
>  <ID>
1--9

>  <pIC50>
6.301029995

$$$$
