1--12


 37 40  0  0  0  0  0  0  0  0999 V2000
    1.8567   37.1588   21.6610 C   0  0  0  0  0  0  0  0  0  0  0  0
    0.9110   37.4170   22.6825 C   0  0  0  0  0  0  0  0  0  0  0  0
    1.2974   37.2566   24.0337 C   0  0  0  0  0  0  0  0  0  0  0  0
    2.6070   36.8811   24.3392 C   0  0  0  0  0  0  0  0  0  0  0  0
    3.5319   36.6471   23.3274 C   0  0  0  0  0  0  0  0  0  0  0  0
    3.1618   36.7911   21.9955 C   0  0  0  0  0  0  0  0  0  0  0  0
    2.3909   37.0616   19.3348 C   0  0  0  0  0  0  0  0  0  0  0  0
    1.4355   37.3077   20.3618 O   0  0  0  0  0  0  0  0  0  0  0  0
    0.3363   37.4873   24.9861 O   0  0  0  0  0  0  0  0  0  0  0  0
    0.6969   38.2950   26.1028 C   0  0  0  0  0  0  0  0  0  0  0  0
    4.7801   36.2961   23.7566 O   0  0  0  0  0  0  0  0  0  0  0  0
    5.8358   36.4703   22.8156 C   0  0  0  0  0  0  0  0  0  0  0  0
    7.1398   36.3583   23.5697 C   0  0  0  0  0  0  0  0  0  0  0  0
    8.3563   36.9040   23.0712 C   0  0  0  0  0  0  0  0  0  0  0  0
    9.5358   36.8478   23.8719 C   0  0  0  0  0  0  0  0  0  0  0  0
    9.4597   36.1259   25.0860 C   0  0  0  0  0  0  0  0  0  0  0  0
    8.2871   35.5138   25.5218 C   0  0  0  0  0  0  0  0  0  0  0  0
    7.1290   35.6427   24.7756 C   0  0  0  0  0  0  0  0  0  0  0  0
    8.3737   37.5223   21.6888 C   0  0  0  0  0  0  0  0  0  0  0  0
   10.8334   37.4956   23.5161 C   0  0  0  0  0  0  0  0  0  0  0  0
   11.9680   36.7498   23.1461 C   0  0  0  0  0  0  0  0  0  0  0  0
   13.1791   37.3627   22.8056 C   0  0  0  0  0  0  0  0  0  0  0  0
   13.2711   38.7482   22.7649 C   0  0  0  0  0  0  0  0  0  0  0  0
   12.1590   39.5176   23.0810 C   0  0  0  0  0  0  0  0  0  0  0  0
   10.9643   38.9000   23.4680 C   0  0  0  0  0  0  0  0  0  0  0  0
   -0.4936   37.8806   22.3299 C   0  0  0  0  0  0  0  0  0  0  0  0
   -1.2289   36.8417   21.6058 N   0  0  0  0  0  0  0  0  0  0  0  0
   -1.6433   36.2378   22.3122 H   0  0  0  0  0  0  0  0  0  0  0  0
   -2.2652   37.3986   20.7376 C   0  0  0  0  0  0  0  0  0  0  0  0
   -1.6744   37.7627   19.3676 C   0  0  0  0  0  0  0  0  0  0  0  0
   -2.0260   36.7253   18.3070 C   0  0  0  0  0  0  0  0  0  0  0  0
   -1.1260   36.6750   17.1675 N   0  0  0  0  0  0  0  0  0  0  0  0
   -0.4236   35.4900   16.9425 C   0  0  0  0  0  0  0  0  0  0  0  0
    0.8855   35.8234   16.2881 C   0  0  0  0  0  0  0  0  0  0  0  0
    0.7906   37.3023   15.9545 C   0  0  0  0  0  0  0  0  0  0  0  0
   -0.3414   37.8325   16.8098 C   0  0  0  0  0  0  0  0  0  0  0  0
   -0.7564   34.3719   17.2927 O   0  0  0  0  0  0  0  0  0  0  0  0
  1  2  2  0  0  0
  1  6  1  0  0  0
  2  3  1  0  0  0
  2 26  1  0  0  0
  3  4  2  0  0  0
  3  9  1  0  0  0
  4  5  1  0  0  0
  5  6  2  0  0  0
  5 11  1  0  0  0
  7  8  1  0  0  0
  8  1  1  0  0  0
  9 10  1  0  0  0
 11 12  1  0  0  0
 12 13  1  0  0  0
 13 14  2  0  0  0
 13 18  1  0  0  0
 14 15  1  0  0  0
 14 19  1  0  0  0
 15 16  2  0  0  0
 15 20  1  0  0  0
 16 17  1  0  0  0
 17 18  2  0  0  0
 20 21  2  0  0  0
 20 25  1  0  0  0
 21 22  1  0  0  0
 22 23  2  0  0  0
 23 24  1  0  0  0
 24 25  2  0  0  0
 26 27  1  0  0  0
 27 29  1  0  0  0
 27 28  1  0  0  0
 29 30  1  0  0  0
 30 31  1  0  0  0
 31 32  1  0  0  0
 32 33  1  0  0  0
 32 36  1  0  0  0
 33 34  1  0  0  0
 33 37  2  0  0  0
 34 35  1  0  0  0
 35 36  1  0  0  0
M  END
> <minimizedAffinity>
-10.62504

$$$$
