1--2


 30 33  0  0  0  0  0  0  0  0999 V2000
    4.8514   36.5782   23.5470 O   0  0  0  0  0  0  0  0  0  0  0  0
    3.6035   36.7111   23.0152 C   0  0  0  0  0  0  0  0  0  0  0  0
    3.5774   36.7898   21.6234 C   0  0  0  0  0  0  0  0  0  0  0  0
    2.3740   36.9801   20.9300 C   0  0  0  0  0  0  0  0  0  0  0  0
    2.3814   37.0683   19.4262 C   0  0  0  0  0  0  0  0  0  0  0  0
    0.9823   36.8715   18.8295 C   0  0  0  0  0  0  0  0  0  0  0  0
    0.0203   37.7508   19.4995 N   0  0  0  0  0  0  0  0  0  0  0  0
   -0.1386   37.3625   20.9175 C   0  0  0  0  0  0  0  0  0  0  0  0
    1.1790   37.1498   21.6424 C   0  0  0  0  0  0  0  0  0  0  0  0
    1.2079   37.0583   23.0439 C   0  0  0  0  0  0  0  0  0  0  0  0
    2.4127   36.8372   23.7284 C   0  0  0  0  0  0  0  0  0  0  0  0
   -1.2729   37.8672   18.8078 C   0  0  0  0  0  0  0  0  0  0  0  0
   -1.1715   38.2308   17.3262 C   0  0  0  0  0  0  0  0  0  0  0  0
   -1.4252   37.4567   16.4177 O   0  0  0  0  0  0  0  0  0  0  0  0
   -0.7374   39.4949   17.1055 O   0  0  0  0  0  0  0  0  0  0  0  0
   -0.5563   39.9974   17.9231 H   0  0  0  0  0  0  0  0  0  0  0  0
    5.9063   36.1594   22.6855 C   0  0  0  0  0  0  0  0  0  0  0  0
    8.3102   37.4662   21.6154 C   0  0  0  0  0  0  0  0  0  0  0  0
    8.3785   36.8740   23.0059 C   0  0  0  0  0  0  0  0  0  0  0  0
    9.5612   36.9208   23.8120 C   0  0  0  0  0  0  0  0  0  0  0  0
    9.5054   36.2580   25.0614 C   0  0  0  0  0  0  0  0  0  0  0  0
    8.3695   35.5797   25.5050 C   0  0  0  0  0  0  0  0  0  0  0  0
    7.2196   35.5787   24.7320 C   0  0  0  0  0  0  0  0  0  0  0  0
    7.1933   36.2401   23.4964 C   0  0  0  0  0  0  0  0  0  0  0  0
   10.8580   37.5619   23.4053 C   0  0  0  0  0  0  0  0  0  0  0  0
   12.0177   36.8225   23.1144 C   0  0  0  0  0  0  0  0  0  0  0  0
   13.2568   37.4398   22.8930 C   0  0  0  0  0  0  0  0  0  0  0  0
   13.3516   38.8251   22.8523 C   0  0  0  0  0  0  0  0  0  0  0  0
   12.2038   39.5890   23.0147 C   0  0  0  0  0  0  0  0  0  0  0  0
   10.9820   38.9657   23.3032 C   0  0  0  0  0  0  0  0  0  0  0  0
  1  2  1  0  0  0
  2  3  2  0  0  0
  2 11  1  0  0  0
  3  4  1  0  0  0
  4  5  1  0  0  0
  4  9  2  0  0  0
  5  6  1  0  0  0
  6  7  1  0  0  0
  7  8  1  0  0  0
  7 12  1  0  0  0
  8  9  1  0  0  0
  9 10  1  0  0  0
 10 11  2  0  0  0
 12 13  1  0  0  0
 13 14  2  0  0  0
 13 15  1  0  0  0
 15 16  1  0  0  0
 17  1  1  0  0  0
 18 19  1  0  0  0
 19 20  2  0  0  0
 19 24  1  0  0  0
 20 21  1  0  0  0
 20 25  1  0  0  0
 21 22  2  0  0  0
 22 23  1  0  0  0
 23 24  2  0  0  0
 24 17  1  0  0  0
 25 26  2  0  0  0
 25 30  1  0  0  0
 26 27  1  0  0  0
 27 28  2  0  0  0
 28 29  1  0  0  0
 29 30  2  0  0  0
M  END
> <minimizedAffinity>
-11.90353

$$$$
