1--8


 33 36  0  0  0  0  0  0  0  0999 V2000
   -2.0840   40.1785   18.5717 Br  0  0  0  0  0  0  0  0  0  0  0  0
   -1.1540   38.5235   18.5422 C   0  0  0  0  0  0  0  0  0  0  0  0
   -1.5036   37.5921   17.5519 C   0  0  0  0  0  0  0  0  0  0  0  0
   -0.9364   36.3053   17.5257 C   0  0  0  0  0  0  0  0  0  0  0  0
    0.1256   36.0469   18.3989 C   0  0  0  0  0  0  0  0  0  0  0  0
    0.4957   36.9882   19.3720 C   0  0  0  0  0  0  0  0  0  0  0  0
   -0.2126   38.1917   19.5184 C   0  0  0  0  0  0  0  0  0  0  0  0
   -0.0673   39.0247   20.6137 O   0  0  0  0  0  0  0  0  0  0  0  0
   -0.7482   38.5318   21.7809 C   0  0  0  0  0  0  0  0  0  0  0  0
    0.1028   38.1403   22.9827 C   0  0  0  0  0  0  0  0  0  0  0  0
    0.0094   38.9041   24.1953 C   0  0  0  0  0  0  0  0  0  0  0  0
    0.7377   38.5133   25.3592 C   0  0  0  0  0  0  0  0  0  0  0  0
    1.6334   37.4334   25.2190 C   0  0  0  0  0  0  0  0  0  0  0  0
    1.7742   36.7337   24.0177 C   0  0  0  0  0  0  0  0  0  0  0  0
    0.9958   37.0682   22.9137 C   0  0  0  0  0  0  0  0  0  0  0  0
   -0.8791   40.1305   24.2198 C   0  0  0  0  0  0  0  0  0  0  0  0
    0.6010   39.1659   26.6998 C   0  0  0  0  0  0  0  0  0  0  0  0
    1.5311   40.1138   27.1720 C   0  0  0  0  0  0  0  0  0  0  0  0
    1.4127   40.7095   28.4343 C   0  0  0  0  0  0  0  0  0  0  0  0
    0.3185   40.4235   29.2402 C   0  0  0  0  0  0  0  0  0  0  0  0
   -0.6484   39.5295   28.7882 C   0  0  0  0  0  0  0  0  0  0  0  0
   -0.4956   38.8964   27.5444 C   0  0  0  0  0  0  0  0  0  0  0  0
   -1.5722   35.1834   16.7073 C   0  0  0  0  0  0  0  0  0  0  0  0
   -1.3264   35.1820   15.2433 N   0  0  0  0  0  0  0  0  0  0  0  0
   -0.5845   33.9442   14.7855 C   0  0  0  0  0  0  0  0  0  0  0  0
   -1.3755   32.6274   14.8686 C   0  0  0  0  0  0  0  0  0  0  0  0
   -2.7464   32.7350   14.2100 C   0  0  0  0  0  0  0  0  0  0  0  0
   -3.4728   33.9946   14.6554 C   0  0  0  0  0  0  0  0  0  0  0  0
   -2.5881   35.2338   14.4733 C   0  0  0  0  0  0  0  0  0  0  0  0
    0.7856   33.8150   15.4677 C   0  0  0  0  0  0  0  0  0  0  0  0
    1.6840   34.6334   15.4127 O   0  0  0  0  0  0  0  0  0  0  0  0
    0.8718   32.6798   16.2100 O   0  0  0  0  0  0  0  0  0  0  0  0
    0.0555   32.1657   16.0630 H   0  0  0  0  0  0  0  0  0  0  0  0
  1  2  1  0  0  0
  2  3  2  0  0  0
  2  7  1  0  0  0
  3  4  1  0  0  0
  4  5  2  0  0  0
  4 23  1  0  0  0
  5  6  1  0  0  0
  6  7  2  0  0  0
  7  8  1  0  0  0
  8  9  1  0  0  0
  9 10  1  0  0  0
 10 11  2  0  0  0
 10 15  1  0  0  0
 11 12  1  0  0  0
 11 16  1  0  0  0
 12 13  2  0  0  0
 12 17  1  0  0  0
 13 14  1  0  0  0
 14 15  2  0  0  0
 17 18  2  0  0  0
 17 22  1  0  0  0
 18 19  1  0  0  0
 19 20  2  0  0  0
 20 21  1  0  0  0
 21 22  2  0  0  0
 23 24  1  0  0  0
 24 25  1  0  0  0
 24 29  1  0  0  0
 25 26  1  0  0  0
 25 30  1  0  0  0
 26 27  1  0  0  0
 27 28  1  0  0  0
 28 29  1  0  0  0
 30 31  2  0  0  0
 30 32  1  0  0  0
 32 33  1  0  0  0
M  END
> <minimizedAffinity>
-8.01507

$$$$
