1--11
 OpenBabel06252120523D

 37 40  0  0  0  0  0  0  0  0999 V2000
    1.2177   37.1958   22.3859 C   0  0  0  0  0  0  0  0  0  0  0  0
    1.1272   36.9952   20.9906 C   0  0  0  0  0  0  0  0  0  0  0  0
    2.3100   36.7667   20.2557 C   0  0  0  0  0  0  0  0  0  0  0  0
    3.5441   36.7667   20.9078 C   0  0  0  0  0  0  0  0  0  0  0  0
    3.6249   36.9775   22.2828 C   0  0  0  0  0  0  0  0  0  0  0  0
    2.4611   37.1521   23.0240 C   0  0  0  0  0  0  0  0  0  0  0  0
    0.0750   38.4547   24.0298 C   0  0  0  0  0  0  0  0  0  0  0  0
    0.0408   37.4066   23.0651 O   0  0  0  0  0  0  0  0  0  0  0  0
    2.1715   36.5839   18.9038 O   0  0  0  0  0  0  0  0  0  0  0  0
    2.2026   37.7280   18.0612 C   0  0  0  0  0  0  0  0  0  0  0  0
    4.7931   37.0339   22.9994 O   0  0  0  0  0  0  0  0  0  0  0  0
    5.8752   36.3125   22.4069 C   0  0  0  0  0  0  0  0  0  0  0  0
    7.1014   36.2281   23.2918 C   0  0  0  0  0  0  0  0  0  0  0  0
    8.3403   36.7885   22.8556 C   0  0  0  0  0  0  0  0  0  0  0  0
    9.4471   36.8614   23.7512 C   0  0  0  0  0  0  0  0  0  0  0  0
    9.2949   36.2410   25.0120 C   0  0  0  0  0  0  0  0  0  0  0  0
    8.1115   35.6096   25.3937 C   0  0  0  0  0  0  0  0  0  0  0  0
    7.0174   35.6205   24.5550 C   0  0  0  0  0  0  0  0  0  0  0  0
    8.4423   37.3019   21.4324 C   0  0  0  0  0  0  0  0  0  0  0  0
   10.7366   37.5523   23.4411 C   0  0  0  0  0  0  0  0  0  0  0  0
   10.8697   38.9533   23.4745 C   0  0  0  0  0  0  0  0  0  0  0  0
   12.0633   39.5958   23.1283 C   0  0  0  0  0  0  0  0  0  0  0  0
   13.1897   38.8461   22.8178 C   0  0  0  0  0  0  0  0  0  0  0  0
   13.1173   37.4588   22.8484 C   0  0  0  0  0  0  0  0  0  0  0  0
   11.9032   36.8238   23.1374 C   0  0  0  0  0  0  0  0  0  0  0  0
   -0.2178   37.0226   20.2899 C   0  0  0  0  0  0  0  0  0  0  0  0
   -0.5137   35.8497   19.4479 N   0  0  0  0  0  0  0  0  0  0  0  0
   -1.0929   35.2309   20.0147 H   0  0  0  0  0  0  0  0  0  0  0  0
   -1.2517   36.1619   18.2093 C   0  0  0  0  0  0  0  0  0  0  0  0
   -0.5981   35.5976   16.9441 C   0  0  0  0  0  0  0  0  0  0  0  0
   -1.4139   34.6695   16.1752 N   0  0  0  0  0  0  0  0  0  0  0  0
   -1.0430   33.3283   16.1065 C   0  0  0  0  0  0  0  0  0  0  0  0
   -2.2232   32.3779   16.0511 C   0  0  0  0  0  0  0  0  0  0  0  0
   -3.4181   32.8684   15.2463 C   0  0  0  0  0  0  0  0  0  0  0  0
   -3.7462   34.3206   15.5694 C   0  0  0  0  0  0  0  0  0  0  0  0
   -2.5117   35.1773   15.3715 C   0  0  0  0  0  0  0  0  0  0  0  0
    0.0969   32.9196   16.2801 O   0  0  0  0  0  0  0  0  0  0  0  0
  1  2  2  0  0  0  0
  1  6  1  0  0  0  0
  2  3  1  0  0  0  0
  2 26  1  0  0  0  0
  3  4  2  0  0  0  0
  3  9  1  0  0  0  0
  4  5  1  0  0  0  0
  5  6  2  0  0  0  0
  5 11  1  0  0  0  0
  7  8  1  0  0  0  0
  8  1  1  0  0  0  0
  9 10  1  0  0  0  0
 11 12  1  0  0  0  0
 12 13  1  0  0  0  0
 13 14  2  0  0  0  0
 13 18  1  0  0  0  0
 14 15  1  0  0  0  0
 14 19  1  0  0  0  0
 15 16  2  0  0  0  0
 15 20  1  0  0  0  0
 16 17  1  0  0  0  0
 17 18  2  0  0  0  0
 20 21  2  0  0  0  0
 20 25  1  0  0  0  0
 21 22  1  0  0  0  0
 22 23  2  0  0  0  0
 23 24  1  0  0  0  0
 24 25  2  0  0  0  0
 26 27  1  0  0  0  0
 27 29  1  0  0  0  0
 27 28  1  0  0  0  0
 29 30  1  0  0  0  0
 30 31  1  0  0  0  0
 31 32  1  0  0  0  0
 31 36  1  0  0  0  0
 32 33  1  0  0  0  0
 32 37  2  0  0  0  0
 33 34  1  0  0  0  0
 34 35  1  0  0  0  0
 35 36  1  0  0  0  0
M  END
>  <ID>
1--11

>  <pIC50>
6.301029995

$$$$
