1--10
 OpenBabel06252120523D

 37 40  0  0  0  0  0  0  0  0999 V2000
    2.2505   36.8009   20.6591 C   0  0  0  0  0  0  0  0  0  0  0  0
    1.0579   37.0209   21.3855 C   0  0  0  0  0  0  0  0  0  0  0  0
    1.1467   37.2082   22.7892 C   0  0  0  0  0  0  0  0  0  0  0  0
    2.3904   37.1411   23.4278 C   0  0  0  0  0  0  0  0  0  0  0  0
    3.5404   36.8622   22.7031 C   0  0  0  0  0  0  0  0  0  0  0  0
    3.4729   36.7468   21.3208 C   0  0  0  0  0  0  0  0  0  0  0  0
    2.2410   37.6858   18.4564 C   0  0  0  0  0  0  0  0  0  0  0  0
    2.1973   36.5445   19.3116 O   0  0  0  0  0  0  0  0  0  0  0  0
    0.1360   37.5498   23.6563 O   0  0  0  0  0  0  0  0  0  0  0  0
    0.1406   38.8306   24.2734 C   0  0  0  0  0  0  0  0  0  0  0  0
    4.6928   36.6809   23.4168 O   0  0  0  0  0  0  0  0  0  0  0  0
    5.8588   36.6002   22.5856 C   0  0  0  0  0  0  0  0  0  0  0  0
    7.1156   36.4060   23.3893 C   0  0  0  0  0  0  0  0  0  0  0  0
    8.3637   36.8848   22.9097 C   0  0  0  0  0  0  0  0  0  0  0  0
    9.5048   36.8287   23.7571 C   0  0  0  0  0  0  0  0  0  0  0  0
    9.3821   36.1035   24.9627 C   0  0  0  0  0  0  0  0  0  0  0  0
    8.1903   35.5037   25.3549 C   0  0  0  0  0  0  0  0  0  0  0  0
    7.0541   35.6766   24.5843 C   0  0  0  0  0  0  0  0  0  0  0  0
    8.4516   37.4304   21.4971 C   0  0  0  0  0  0  0  0  0  0  0  0
   10.7787   37.5241   23.4501 C   0  0  0  0  0  0  0  0  0  0  0  0
   11.9251   36.8231   23.0305 C   0  0  0  0  0  0  0  0  0  0  0  0
   13.1271   37.4689   22.7444 C   0  0  0  0  0  0  0  0  0  0  0  0
   13.1900   38.8511   22.7980 C   0  0  0  0  0  0  0  0  0  0  0  0
   12.0623   39.5856   23.1572 C   0  0  0  0  0  0  0  0  0  0  0  0
   10.8770   38.9294   23.4936 C   0  0  0  0  0  0  0  0  0  0  0  0
   -0.2887   37.1034   20.7224 C   0  0  0  0  0  0  0  0  0  0  0  0
   -0.6163   36.1215   19.6995 N   0  0  0  0  0  0  0  0  0  0  0  0
   -0.8679   35.2459   20.1608 H   0  0  0  0  0  0  0  0  0  0  0  0
   -1.7186   36.6322   18.8945 C   0  0  0  0  0  0  0  0  0  0  0  0
   -1.2748   36.8391   17.4434 C   0  0  0  0  0  0  0  0  0  0  0  0
   -0.6047   35.6508   16.8917 N   0  0  0  0  0  0  0  0  0  0  0  0
   -1.5516   34.6408   16.3695 C   0  0  0  0  0  0  0  0  0  0  0  0
   -2.2740   35.0344   15.0602 C   0  0  0  0  0  0  0  0  0  0  0  0
   -1.3791   35.4705   13.9712 N   0  0  0  0  0  0  0  0  0  0  0  0
   -0.4071   36.4576   14.4833 C   0  0  0  0  0  0  0  0  0  0  0  0
    0.3066   36.0553   15.7963 C   0  0  0  0  0  0  0  0  0  0  0  0
   -0.6996   34.3293   13.3606 C   0  0  0  0  0  0  0  0  0  0  0  0
  1  2  2  0  0  0  0
  1  6  1  0  0  0  0
  2  3  1  0  0  0  0
  2 26  1  0  0  0  0
  3  4  2  0  0  0  0
  3  9  1  0  0  0  0
  4  5  1  0  0  0  0
  5  6  2  0  0  0  0
  5 11  1  0  0  0  0
  7  8  1  0  0  0  0
  8  1  1  0  0  0  0
  9 10  1  0  0  0  0
 11 12  1  0  0  0  0
 12 13  1  0  0  0  0
 13 14  2  0  0  0  0
 13 18  1  0  0  0  0
 14 15  1  0  0  0  0
 14 19  1  0  0  0  0
 15 16  2  0  0  0  0
 15 20  1  0  0  0  0
 16 17  1  0  0  0  0
 17 18  2  0  0  0  0
 20 21  2  0  0  0  0
 20 25  1  0  0  0  0
 21 22  1  0  0  0  0
 22 23  2  0  0  0  0
 23 24  1  0  0  0  0
 24 25  2  0  0  0  0
 26 27  1  0  0  0  0
 27 29  1  0  0  0  0
 27 28  1  0  0  0  0
 29 30  1  0  0  0  0
 30 31  1  0  0  0  0
 31 32  1  0  0  0  0
 31 36  1  0  0  0  0
 32 33  1  0  0  0  0
 33 34  1  0  0  0  0
 34 35  1  0  0  0  0
 34 37  1  0  0  0  0
 35 36  1  0  0  0  0
M  END
>  <ID>
1--10

>  <pIC50>
6.301029995

$$$$
