1--1
 OpenBabel06252120523D

 36 39  0  0  0  0  0  0  0  0999 V2000
    0.9474   36.5778   17.2159 C   0  0  0  0  0  0  0  0  0  0  0  0
   -0.4610   36.4878   17.1465 C   0  0  0  0  0  0  0  0  0  0  0  0
   -1.2090   36.6960   18.3432 C   0  0  0  0  0  0  0  0  0  0  0  0
   -0.5610   36.9284   19.5590 C   0  0  0  0  0  0  0  0  0  0  0  0
    0.8208   36.9479   19.6186 C   0  0  0  0  0  0  0  0  0  0  0  0
    1.5688   36.7926   18.4544 C   0  0  0  0  0  0  0  0  0  0  0  0
    2.1452   37.6326   15.4486 C   0  0  0  0  0  0  0  0  0  0  0  0
    1.6697   36.4370   16.0561 O   0  0  0  0  0  0  0  0  0  0  0  0
   -2.5779   36.6750   18.2214 O   0  0  0  0  0  0  0  0  0  0  0  0
   -3.3360   37.1346   19.3402 C   0  0  0  0  0  0  0  0  0  0  0  0
   -1.2596   36.3488   15.8446 C   0  0  0  0  0  0  0  0  0  0  0  0
   -1.3004   35.0394   15.1571 N   0  0  0  0  0  0  0  0  0  0  0  0
   -1.4939   33.8924   16.0987 C   0  0  1  0  0  0  0  0  0  0  0  0
   -2.9304   33.7001   16.6031 C   0  0  0  0  0  0  0  0  0  0  0  0
   -3.9488   33.6893   15.4702 C   0  0  0  0  0  0  0  0  0  0  0  0
   -3.7829   34.9293   14.6056 C   0  0  0  0  0  0  0  0  0  0  0  0
   -2.3432   35.0612   14.1030 C   0  0  0  0  0  0  0  0  0  0  0  0
   -0.9565   32.6148   15.4136 C   0  0  0  0  0  0  0  0  0  0  0  0
   -1.6338   31.7521   14.8756 O   0  0  0  0  0  0  0  0  0  0  0  0
    0.3980   32.5254   15.5185 O   0  0  0  0  0  0  0  0  0  0  0  0
    0.6825   33.3452   15.9990 H   0  0  0  0  0  0  0  0  0  0  0  0
    1.3525   37.1416   20.8655 O   0  0  0  0  0  0  0  0  0  0  0  0
    2.7787   37.0625   20.8940 C   0  0  0  0  0  0  0  0  0  0  0  0
    3.3309   36.7765   22.2754 C   0  0  0  0  0  0  0  0  0  0  0  0
    4.7125   36.4826   22.4376 C   0  0  0  0  0  0  0  0  0  0  0  0
    5.2630   36.3793   23.7457 C   0  0  0  0  0  0  0  0  0  0  0  0
    4.3671   36.3975   24.8359 C   0  0  0  0  0  0  0  0  0  0  0  0
    2.9955   36.5731   24.6646 C   0  0  0  0  0  0  0  0  0  0  0  0
    2.4858   36.7952   23.3942 C   0  0  0  0  0  0  0  0  0  0  0  0
    5.5766   36.2656   21.2099 C   0  0  0  0  0  0  0  0  0  0  0  0
    6.7248   36.2851   24.0171 C   0  0  0  0  0  0  0  0  0  0  0  0
    7.6720   36.8935   23.1720 C   0  0  0  0  0  0  0  0  0  0  0  0
    9.0459   36.7897   23.4039 C   0  0  0  0  0  0  0  0  0  0  0  0
    9.5081   36.1314   24.5357 C   0  0  0  0  0  0  0  0  0  0  0  0
    8.5961   35.5707   25.4243 C   0  0  0  0  0  0  0  0  0  0  0  0
    7.2231   35.6313   25.1579 C   0  0  0  0  0  0  0  0  0  0  0  0
  1  2  2  0  0  0  0
  1  6  1  0  0  0  0
  2 11  1  0  0  0  0
  2  3  1  0  0  0  0
  3  4  2  0  0  0  0
  3  9  1  0  0  0  0
  4  5  1  0  0  0  0
  5  6  2  0  0  0  0
  5 22  1  0  0  0  0
  7  8  1  0  0  0  0
  8  1  1  0  0  0  0
  9 10  1  0  0  0  0
 11 12  1  0  0  0  0
 12 13  1  0  0  0  0
 12 17  1  0  0  0  0
 13 14  1  0  0  0  0
 13 18  1  6  0  0  0
 14 15  1  0  0  0  0
 15 16  1  0  0  0  0
 16 17  1  0  0  0  0
 18 19  2  0  0  0  0
 18 20  1  0  0  0  0
 20 21  1  0  0  0  0
 22 23  1  0  0  0  0
 23 24  1  0  0  0  0
 24 25  2  0  0  0  0
 24 29  1  0  0  0  0
 25 26  1  0  0  0  0
 25 30  1  0  0  0  0
 26 27  2  0  0  0  0
 26 31  1  0  0  0  0
 27 28  1  0  0  0  0
 28 29  2  0  0  0  0
 31 32  2  0  0  0  0
 31 36  1  0  0  0  0
 32 33  1  0  0  0  0
 33 34  2  0  0  0  0
 34 35  1  0  0  0  0
 35 36  2  0  0  0  0
M  END
>  <ID>
1--1

>  <pIC50>
7.301029995

$$$$
