1--2
 OpenBabel06252120523D

 30 33  0  0  0  0  0  0  0  0999 V2000
    4.9044   36.9372   23.1770 O   0  0  0  0  0  0  0  0  0  0  0  0
    3.6403   36.9034   22.6685 C   0  0  0  0  0  0  0  0  0  0  0  0
    3.5790   36.9628   21.2768 C   0  0  0  0  0  0  0  0  0  0  0  0
    2.3487   36.9898   20.6054 C   0  0  0  0  0  0  0  0  0  0  0  0
    2.3173   37.0616   19.1010 C   0  0  0  0  0  0  0  0  0  0  0  0
    0.9444   36.6807   18.5334 C   0  0  0  0  0  0  0  0  0  0  0  0
   -0.1101   37.4369   19.2144 N   0  0  0  0  0  0  0  0  0  0  0  0
   -0.1920   37.0471   20.6385 C   0  0  0  0  0  0  0  0  0  0  0  0
    1.1550   37.0128   21.3394 C   0  0  0  0  0  0  0  0  0  0  0  0
    1.2209   36.9412   22.7408 C   0  0  0  0  0  0  0  0  0  0  0  0
    2.4563   36.8838   23.4036 C   0  0  0  0  0  0  0  0  0  0  0  0
   -1.4199   37.3791   18.5471 C   0  0  0  0  0  0  0  0  0  0  0  0
   -1.5802   38.3479   17.3752 C   0  0  0  0  0  0  0  0  0  0  0  0
   -2.1706   38.0740   16.3430 O   0  0  0  0  0  0  0  0  0  0  0  0
   -0.9728   39.5428   17.5711 O   0  0  0  0  0  0  0  0  0  0  0  0
   -0.5236   39.6192   18.4350 H   0  0  0  0  0  0  0  0  0  0  0  0
    5.9007   36.1335   22.5510 C   0  0  0  0  0  0  0  0  0  0  0  0
    8.3552   37.4597   21.6299 C   0  0  0  0  0  0  0  0  0  0  0  0
    8.3495   36.8503   23.0146 C   0  0  0  0  0  0  0  0  0  0  0  0
    9.4863   36.8900   23.8846 C   0  0  0  0  0  0  0  0  0  0  0  0
    9.3646   36.2115   25.1208 C   0  0  0  0  0  0  0  0  0  0  0  0
    8.2084   35.5248   25.4933 C   0  0  0  0  0  0  0  0  0  0  0  0
    7.1023   35.5306   24.6588 C   0  0  0  0  0  0  0  0  0  0  0  0
    7.1413   36.2073   23.4318 C   0  0  0  0  0  0  0  0  0  0  0  0
   10.8013   37.5395   23.5572 C   0  0  0  0  0  0  0  0  0  0  0  0
   10.9673   38.9335   23.4827 C   0  0  0  0  0  0  0  0  0  0  0  0
   12.1558   39.5169   23.0216 C   0  0  0  0  0  0  0  0  0  0  0  0
   13.2545   38.7224   22.7195 C   0  0  0  0  0  0  0  0  0  0  0  0
   13.1677   37.3482   22.8968 C   0  0  0  0  0  0  0  0  0  0  0  0
   11.9549   36.7678   23.2928 C   0  0  0  0  0  0  0  0  0  0  0  0
  1  2  1  0  0  0  0
  2  3  2  0  0  0  0
  2 11  1  0  0  0  0
  3  4  1  0  0  0  0
  4  5  1  0  0  0  0
  4  9  2  0  0  0  0
  5  6  1  0  0  0  0
  6  7  1  0  0  0  0
  7  8  1  0  0  0  0
  7 12  1  0  0  0  0
  8  9  1  0  0  0  0
  9 10  1  0  0  0  0
 10 11  2  0  0  0  0
 12 13  1  0  0  0  0
 13 14  2  0  0  0  0
 13 15  1  0  0  0  0
 15 16  1  0  0  0  0
 17  1  1  0  0  0  0
 18 19  1  0  0  0  0
 19 20  2  0  0  0  0
 19 24  1  0  0  0  0
 20 21  1  0  0  0  0
 20 25  1  0  0  0  0
 21 22  2  0  0  0  0
 22 23  1  0  0  0  0
 23 24  2  0  0  0  0
 24 17  1  0  0  0  0
 25 26  2  0  0  0  0
 25 30  1  0  0  0  0
 26 27  1  0  0  0  0
 27 28  2  0  0  0  0
 28 29  1  0  0  0  0
 29 30  2  0  0  0  0
M  END
>  <ID>
1--2

>  <pIC50>
6.301029995

$$$$
