1--4
 OpenBabel06252120523D

 28 31  0  0  0  0  0  0  0  0999 V2000
    1.7068   37.0441   22.7105 C   0  0  0  0  0  0  0  0  0  0  0  0
    3.0810   36.8706   22.3291 C   0  0  0  0  0  0  0  0  0  0  0  0
    4.0745   36.5701   23.3125 C   0  0  0  0  0  0  0  0  0  0  0  0
    3.7123   36.5378   24.6678 C   0  0  0  0  0  0  0  0  0  0  0  0
    2.3999   36.7630   25.0562 C   0  0  0  0  0  0  0  0  0  0  0  0
    1.4168   36.9914   24.0932 C   0  0  0  0  0  0  0  0  0  0  0  0
    3.5396   36.9816   20.8911 C   0  0  0  0  0  0  0  0  0  0  0  0
   -0.7104   36.6876   19.7291 C   0  0  0  0  0  0  0  0  0  0  0  0
    0.3583   36.4703   20.6154 C   0  0  0  0  0  0  0  0  0  0  0  0
    0.5704   37.2816   21.7553 C   0  0  0  0  0  0  0  0  0  0  0  0
   -0.3308   38.3487   21.9211 C   0  0  0  0  0  0  0  0  0  0  0  0
   -1.4570   38.5056   21.1067 C   0  0  0  0  0  0  0  0  0  0  0  0
   -1.6549   37.6667   20.0189 C   0  0  0  0  0  0  0  0  0  0  0  0
    0.0662   36.2871   17.5427 C   0  0  0  0  0  0  0  0  0  0  0  0
   -0.7687   35.8739   18.6274 O   0  0  0  0  0  0  0  0  0  0  0  0
    5.5434   36.3271   22.9718 C   0  0  0  0  0  0  0  0  0  0  0  0
    6.2805   35.9902   24.1482 O   0  0  0  0  0  0  0  0  0  0  0  0
    7.6380   36.1602   24.1093 C   0  0  0  0  0  0  0  0  0  0  0  0
    8.5438   35.9154   25.1384 C   0  0  0  0  0  0  0  0  0  0  0  0
    9.9202   36.0993   24.9347 C   0  0  0  0  0  0  0  0  0  0  0  0
   10.4122   36.5288   23.6914 C   0  0  0  0  0  0  0  0  0  0  0  0
    9.4941   36.8081   22.6732 C   0  0  0  0  0  0  0  0  0  0  0  0
    8.1239   36.6250   22.8801 C   0  0  0  0  0  0  0  0  0  0  0  0
   11.9007   36.6657   23.4318 C   0  0  0  0  0  0  0  0  0  0  0  0
   12.2268   37.8165   22.5794 N   0  0  0  0  0  0  0  0  0  0  0  0
   11.6257   39.0760   23.1076 C   0  0  0  0  0  0  0  0  0  0  0  0
   12.9349   39.7744   22.6892 C   0  0  0  0  0  0  0  0  0  0  0  0
   13.5626   38.3843   22.9301 C   0  0  0  0  0  0  0  0  0  0  0  0
  1  2  2  0  0  0  0
  1  6  1  0  0  0  0
  2  3  1  0  0  0  0
  2  7  1  0  0  0  0
  3  4  2  0  0  0  0
  3 16  1  0  0  0  0
  4  5  1  0  0  0  0
  5  6  2  0  0  0  0
  8  9  2  0  0  0  0
  8 13  1  0  0  0  0
  9 10  1  0  0  0  0
 10 11  2  0  0  0  0
 10  1  1  0  0  0  0
 11 12  1  0  0  0  0
 12 13  2  0  0  0  0
 14 15  1  0  0  0  0
 15  8  1  0  0  0  0
 16 17  1  0  0  0  0
 17 18  1  0  0  0  0
 18 19  2  0  0  0  0
 18 23  1  0  0  0  0
 19 20  1  0  0  0  0
 20 21  2  0  0  0  0
 21 24  1  0  0  0  0
 21 22  1  0  0  0  0
 22 23  2  0  0  0  0
 24 25  1  0  0  0  0
 25 26  1  0  0  0  0
 25 28  1  0  0  0  0
 26 27  1  0  0  0  0
 27 28  1  0  0  0  0
M  END
>  <ID>
1--4

>  <pIC50>
5.301029995

$$$$
