1--5
 OpenBabel06252120523D

 36 38  0  0  0  0  0  0  0  0999 V2000
    4.4581   36.5956   22.7800 C   0  0  0  0  0  0  0  0  0  0  0  0
    3.2429   37.0868   22.1839 C   0  0  0  0  0  0  0  0  0  0  0  0
    2.0571   37.1424   22.9465 C   0  0  0  0  0  0  0  0  0  0  0  0
    2.1284   36.9528   24.3373 C   0  0  0  0  0  0  0  0  0  0  0  0
    3.3045   36.4669   24.9079 C   0  0  0  0  0  0  0  0  0  0  0  0
    4.4574   36.2440   24.1445 C   0  0  0  0  0  0  0  0  0  0  0  0
    0.3117   37.1425   22.1416 Br  0  0  0  0  0  0  0  0  0  0  0  0
    5.4076   35.5765   24.8693 O   0  0  0  0  0  0  0  0  0  0  0  0
    6.7873   35.8553   24.7103 C   0  0  0  0  0  0  0  0  0  0  0  0
    3.4090   37.4685   20.8744 O   0  0  0  0  0  0  0  0  0  0  0  0
    2.6320   36.9663   19.8022 C   0  0  0  0  0  0  0  0  0  0  0  0
    5.6554   36.3457   21.8766 C   0  0  0  0  0  0  0  0  0  0  0  0
    6.4561   37.5401   21.5835 N   0  0  0  0  0  0  0  0  0  0  0  0
    6.1108   37.9709   20.7267 H   0  0  0  0  0  0  0  0  0  0  0  0
    7.8958   37.2917   21.4512 C   0  0  0  0  0  0  0  0  0  0  0  0
    8.7716   38.1023   22.4159 C   0  0  0  0  0  0  0  0  0  0  0  0
   11.1621   38.6060   22.7047 C   0  0  0  0  0  0  0  0  0  0  0  0
   12.5495   38.0466   22.5179 C   0  0  0  0  0  0  0  0  0  0  0  0
   10.9548   39.7328   23.1263 O   0  0  0  0  0  0  0  0  0  0  0  0
   10.1681   37.7294   22.3469 N   0  0  0  0  0  0  0  0  0  0  0  0
   10.4022   36.7703   22.1239 H   0  0  0  0  0  0  0  0  0  0  0  0
    1.0989   37.1450   25.2320 O   0  0  0  0  0  0  0  0  0  0  0  0
    0.5269   38.4589   25.1734 C   0  0  0  0  0  0  0  0  0  0  0  0
    0.0641   38.9379   26.5265 C   0  0  0  0  0  0  0  0  0  0  0  0
    0.9553   39.5083   27.4765 C   0  0  0  0  0  0  0  0  0  0  0  0
    0.4506   39.9535   28.7286 C   0  0  0  0  0  0  0  0  0  0  0  0
   -0.8986   39.6520   29.0297 C   0  0  0  0  0  0  0  0  0  0  0  0
   -1.7382   38.9975   28.1308 C   0  0  0  0  0  0  0  0  0  0  0  0
   -1.2692   38.6744   26.8721 C   0  0  0  0  0  0  0  0  0  0  0  0
    2.4299   39.6051   27.1382 C   0  0  0  0  0  0  0  0  0  0  0  0
    1.2546   40.7167   29.7255 C   0  0  0  0  0  0  0  0  0  0  0  0
    1.1426   42.1137   29.8560 C   0  0  0  0  0  0  0  0  0  0  0  0
    1.9023   42.8339   30.7818 C   0  0  0  0  0  0  0  0  0  0  0  0
    2.7480   42.1621   31.6552 C   0  0  0  0  0  0  0  0  0  0  0  0
    2.8471   40.7770   31.5858 C   0  0  0  0  0  0  0  0  0  0  0  0
    2.1247   40.0672   30.6206 C   0  0  0  0  0  0  0  0  0  0  0  0
  1  2  2  0  0  0  0
  1  6  1  0  0  0  0
  2  3  1  0  0  0  0
  2 10  1  0  0  0  0
  3  4  2  0  0  0  0
  3  7  1  0  0  0  0
  4  5  1  0  0  0  0
  4 22  1  0  0  0  0
  5  6  2  0  0  0  0
  6  8  1  0  0  0  0
  8  9  1  0  0  0  0
 10 11  1  0  0  0  0
 12  1  1  0  0  0  0
 13 12  1  0  0  0  0
 13 14  1  0  0  0  0
 15 13  1  0  0  0  0
 16 15  1  0  0  0  0
 17 18  1  0  0  0  0
 17 19  2  0  0  0  0
 17 20  1  0  0  0  0
 20 16  1  0  0  0  0
 20 21  1  0  0  0  0
 22 23  1  0  0  0  0
 23 24  1  0  0  0  0
 24 25  2  0  0  0  0
 24 29  1  0  0  0  0
 25 26  1  0  0  0  0
 25 30  1  0  0  0  0
 26 27  2  0  0  0  0
 26 31  1  0  0  0  0
 27 28  1  0  0  0  0
 28 29  2  0  0  0  0
 31 32  2  0  0  0  0
 31 36  1  0  0  0  0
 32 33  1  0  0  0  0
 33 34  2  0  0  0  0
 34 35  1  0  0  0  0
 35 36  2  0  0  0  0
M  END
>  <ID>
1--5

>  <pIC50>
6.301029995

$$$$
