1--6
 OpenBabel06252120523D

 39 42  0  0  0  0  0  0  0  0999 V2000
    1.2234   37.2572   22.6232 C   0  0  0  0  0  0  0  0  0  0  0  0
    0.9689   37.0340   21.2454 C   0  0  0  0  0  0  0  0  0  0  0  0
    2.0694   36.7301   20.4119 C   0  0  0  0  0  0  0  0  0  0  0  0
    3.3741   36.7711   20.9164 C   0  0  0  0  0  0  0  0  0  0  0  0
    3.6168   37.1121   22.2461 C   0  0  0  0  0  0  0  0  0  0  0  0
    2.5410   37.3139   23.1024 C   0  0  0  0  0  0  0  0  0  0  0  0
    0.2790   38.4993   24.4355 C   0  0  0  0  0  0  0  0  0  0  0  0
    0.1457   37.4924   23.4399 O   0  0  0  0  0  0  0  0  0  0  0  0
    2.0255   36.5431   19.0497 O   0  0  0  0  0  0  0  0  0  0  0  0
    2.2362   37.6849   18.2251 C   0  0  0  0  0  0  0  0  0  0  0  0
    4.8599   37.3011   22.7940 O   0  0  0  0  0  0  0  0  0  0  0  0
    5.8236   36.3282   22.3694 C   0  0  0  0  0  0  0  0  0  0  0  0
    7.0602   36.2224   23.2694 C   0  0  0  0  0  0  0  0  0  0  0  0
    8.3107   36.7589   22.8296 C   0  0  0  0  0  0  0  0  0  0  0  0
    9.4546   36.7382   23.6916 C   0  0  0  0  0  0  0  0  0  0  0  0
    9.2889   36.0788   24.9332 C   0  0  0  0  0  0  0  0  0  0  0  0
    8.0654   35.5570   25.3588 C   0  0  0  0  0  0  0  0  0  0  0  0
    6.9523   35.6475   24.5392 C   0  0  0  0  0  0  0  0  0  0  0  0
    8.3940   37.3110   21.4214 C   0  0  0  0  0  0  0  0  0  0  0  0
   10.7597   37.4505   23.4310 C   0  0  0  0  0  0  0  0  0  0  0  0
   10.8155   38.8641   23.4429 C   0  0  0  0  0  0  0  0  0  0  0  0
   11.9723   39.5789   23.1043 C   0  0  0  0  0  0  0  0  0  0  0  0
   13.1134   38.9017   22.7024 C   0  0  0  0  0  0  0  0  0  0  0  0
   13.1125   37.5145   22.7097 C   0  0  0  0  0  0  0  0  0  0  0  0
   11.9687   36.8082   23.1122 C   0  0  0  0  0  0  0  0  0  0  0  0
   -0.4163   37.0907   20.6249 C   0  0  0  0  0  0  0  0  0  0  0  0
   -1.1734   38.3146   20.8192 N   0  0  0  0  0  0  0  0  0  0  0  0
   -0.5859   38.9635   21.3401 H   0  0  0  0  0  0  0  0  0  0  0  0
   -1.6956   38.9473   19.5956 C   0  0  0  0  0  0  0  0  0  0  0  0
   -3.2319   39.0129   19.6245 C   0  0  0  0  0  0  0  0  0  0  0  0
   -1.1950   40.4094   19.7361 C   0  0  0  0  0  0  0  0  0  0  0  0
   -1.1304   38.4048   18.2150 C   0  0  0  0  0  0  0  0  0  0  0  0
   -1.9863   37.8191   17.1479 N   0  0  0  0  0  0  0  0  0  0  0  0
   -1.5391   38.0345   15.7620 C   0  0  0  0  0  0  0  0  0  0  0  0
   -0.2238   37.3331   15.3496 C   0  0  0  0  0  0  0  0  0  0  0  0
   -0.0364   35.9364   15.7791 N   0  0  0  0  0  0  0  0  0  0  0  0
   -0.7331   35.5999   17.0318 C   0  0  0  0  0  0  0  0  0  0  0  0
   -2.0631   36.3447   17.3142 C   0  0  0  0  0  0  0  0  0  0  0  0
   -0.2965   34.9741   14.7175 C   0  0  0  0  0  0  0  0  0  0  0  0
  1  2  2  0  0  0  0
  1  6  1  0  0  0  0
  2  3  1  0  0  0  0
  2 26  1  0  0  0  0
  3  4  2  0  0  0  0
  3  9  1  0  0  0  0
  4  5  1  0  0  0  0
  5  6  2  0  0  0  0
  5 11  1  0  0  0  0
  7  8  1  0  0  0  0
  8  1  1  0  0  0  0
  9 10  1  0  0  0  0
 11 12  1  0  0  0  0
 12 13  1  0  0  0  0
 13 14  2  0  0  0  0
 13 18  1  0  0  0  0
 14 15  1  0  0  0  0
 14 19  1  0  0  0  0
 15 16  2  0  0  0  0
 15 20  1  0  0  0  0
 16 17  1  0  0  0  0
 17 18  2  0  0  0  0
 20 21  2  0  0  0  0
 20 25  1  0  0  0  0
 21 22  1  0  0  0  0
 22 23  2  0  0  0  0
 23 24  1  0  0  0  0
 24 25  2  0  0  0  0
 26 27  1  0  0  0  0
 27 29  1  0  0  0  0
 27 28  1  0  0  0  0
 29 32  1  0  0  0  0
 29 30  1  0  0  0  0
 29 31  1  0  0  0  0
 32 33  1  0  0  0  0
 33 34  1  0  0  0  0
 33 38  1  0  0  0  0
 34 35  1  0  0  0  0
 35 36  1  0  0  0  0
 36 37  1  0  0  0  0
 36 39  1  0  0  0  0
 37 38  1  0  0  0  0
M  END
>  <ID>
1--6

>  <pIC50>
7.301029995

$$$$
