2--1000
 OpenBabel07232110323D

 46 50  0  0  0  0  0  0  0  0999 V2000
   -2.0499   38.7525   24.7045 C   0  0  0  0  0  0  0  0  0  0  0  0
   -3.2081   38.1277   24.1574 C   0  0  0  0  0  0  0  0  0  0  0  0
   -3.1477   37.6359   22.8321 C   0  0  0  0  0  0  0  0  0  0  0  0
   -1.9729   37.8116   22.0877 C   0  0  0  0  0  0  0  0  0  0  0  0
   -0.8302   38.3780   22.6466 C   0  0  0  0  0  0  0  0  0  0  0  0
   -0.8827   38.8868   23.9399 C   0  0  0  0  0  0  0  0  0  0  0  0
   -4.2468   36.8953   22.1135 C   0  0  0  0  0  0  0  0  0  0  0  0
   -2.1684   39.2409   25.9848 O   0  0  0  0  0  0  0  0  0  0  0  0
   -1.5497   38.5461   27.0679 C   0  0  0  0  0  0  0  0  0  0  0  0
    1.0532   40.7837   28.7871 C   0  0  0  0  0  0  0  0  0  0  0  0
   -0.1770   40.2744   28.3569 C   0  0  0  0  0  0  0  0  0  0  0  0
   -0.2390   39.1465   27.5286 C   0  0  0  0  0  0  0  0  0  0  0  0
    0.9662   38.5136   27.1637 C   0  0  0  0  0  0  0  0  0  0  0  0
    2.1931   39.0228   27.5849 C   0  0  0  0  0  0  0  0  0  0  0  0
    2.2414   40.1566   28.3913 C   0  0  0  0  0  0  0  0  0  0  0  0
    1.1011   41.9339   29.6406 C   0  0  0  0  0  0  0  0  0  0  0  0
    1.1286   42.8618   30.3415 N   0  0  0  0  0  0  0  0  0  0  0  0
   -4.4574   37.8915   24.9975 C   0  0  0  0  0  0  0  0  0  0  0  0
   -4.3645   36.9049   26.0833 N   0  0  0  0  0  0  0  0  0  0  0  0
   -3.3700   36.6867   26.1796 H   0  0  0  0  0  0  0  0  0  0  0  0
   -4.8307   37.4176   27.3792 C   0  0  0  0  0  0  0  0  0  0  0  0
   -5.7118   36.4508   28.1803 C   0  0  0  0  0  0  0  0  0  0  0  0
   -4.9256   35.4850   28.9242 N   0  0  0  0  0  0  0  0  0  0  0  0
   -5.5185   34.4442   29.6004 C   0  0  0  0  0  0  0  0  0  0  0  0
   -4.5464   33.5051   30.2613 C   0  0  0  0  0  0  0  0  0  0  0  0
   -6.7294   34.2580   29.6423 O   0  0  0  0  0  0  0  0  0  0  0  0
   -3.9362   35.6602   29.0399 H   0  0  0  0  0  0  0  0  0  0  0  0
    0.3827   38.4361   21.9996 O   0  0  0  0  0  0  0  0  0  0  0  0
    0.9785   37.1395   21.8230 C   0  0  0  0  0  0  0  0  0  0  0  0
    2.0940   36.8035   22.7955 C   0  0  0  0  0  0  0  0  0  0  0  0
    3.4582   36.7766   22.3561 C   0  0  0  0  0  0  0  0  0  0  0  0
    4.5045   36.5337   23.2956 C   0  0  0  0  0  0  0  0  0  0  0  0
    4.1182   36.2175   24.6184 C   0  0  0  0  0  0  0  0  0  0  0  0
    2.7848   36.1904   25.0265 C   0  0  0  0  0  0  0  0  0  0  0  0
    1.7812   36.5097   24.1273 C   0  0  0  0  0  0  0  0  0  0  0  0
    3.7678   36.9913   20.8870 C   0  0  0  0  0  0  0  0  0  0  0  0
    5.9697   36.6278   22.9962 C   0  0  0  0  0  0  0  0  0  0  0  0
    6.9406   36.2292   23.9407 C   0  0  0  0  0  0  0  0  0  0  0  0
    8.3103   36.4204   23.7156 C   0  0  0  0  0  0  0  0  0  0  0  0
    8.7510   37.0041   22.5288 C   0  0  0  0  0  0  0  0  0  0  0  0
   10.0685   37.2608   22.2517 O   0  0  0  0  0  0  0  0  0  0  0  0
   10.8684   37.2067   23.4379 C   0  0  0  0  0  0  0  0  0  0  0  0
   10.5195   35.9759   24.2584 C   0  0  0  0  0  0  0  0  0  0  0  0
    9.1639   36.0360   24.7199 O   0  0  0  0  0  0  0  0  0  0  0  0
    7.8263   37.3682   21.5620 C   0  0  0  0  0  0  0  0  0  0  0  0
    6.4569   37.2099   21.8101 C   0  0  0  0  0  0  0  0  0  0  0  0
  1  2  2  0  0  0  0
  1  6  1  0  0  0  0
  2 18  1  0  0  0  0
  2  3  1  0  0  0  0
  3  4  2  0  0  0  0
  3  7  1  0  0  0  0
  4  5  1  0  0  0  0
  5  6  2  0  0  0  0
  5 28  1  0  0  0  0
  8  1  1  0  0  0  0
  9  8  1  0  0  0  0
 10 11  2  0  0  0  0
 10 15  1  0  0  0  0
 11 12  1  0  0  0  0
 12  9  1  0  0  0  0
 12 13  2  0  0  0  0
 13 14  1  0  0  0  0
 14 15  2  0  0  0  0
 16 17  3  0  0  0  0
 16 10  1  0  0  0  0
 18 19  1  0  0  0  0
 19 21  1  0  0  0  0
 19 20  1  0  0  0  0
 21 22  1  0  0  0  0
 22 23  1  0  0  0  0
 23 24  1  0  0  0  0
 23 27  1  0  0  0  0
 24 25  1  0  0  0  0
 24 26  2  0  0  0  0
 28 29  1  0  0  0  0
 29 30  1  0  0  0  0
 30 31  2  0  0  0  0
 30 35  1  0  0  0  0
 31 32  1  0  0  0  0
 31 36  1  0  0  0  0
 32 33  2  0  0  0  0
 32 37  1  0  0  0  0
 33 34  1  0  0  0  0
 34 35  2  0  0  0  0
 37 38  2  0  0  0  0
 37 46  1  0  0  0  0
 38 39  1  0  0  0  0
 39 40  2  0  0  0  0
 39 44  1  0  0  0  0
 40 41  1  0  0  0  0
 40 45  1  0  0  0  0
 41 42  1  0  0  0  0
 42 43  1  0  0  0  0
 43 44  1  0  0  0  0
 45 46  2  0  0  0  0
M  END
>  <ID>
2--1000

>  <pIC50>
7.301029995

$$$$
